Live_GMASP_UFRS/8500-Node_real/IEEE8500u_Losses.Txt

LOSSES REPORT

Power Delivery Element Loss Report

Element                  kW Losses    % of Power   kvar Losses

"Line.HVMV_SUB_CONNECTOR"     0.00084,      0.0     0.00844626
"Line.LN5502549-1"            0.00021,      0.0     -0.00397004
"Line.LN6259988-1"            0.00038,      0.0     -0.0138422
"Line.LN6077796-1"            0.00006,      0.0     -0.00140399
"Line.LN5835135-2"            0.02216,     0.02     0.0065191
"Line.LN5896826-1"            0.00016,      0.0     -0.0269408
"Line.LN5714038-1"            0.00081,      0.0     -0.0126544
"Line.LN5653457-1"            0.32931,     0.06     0.0769964
"Line.LN5835173-1"            0.16217,     0.02     0.137276
"Line.LN6321415-1"            0.00022,      0.0     -0.011662
"Line.LN5565092-1"            0.00003,      0.0     -0.000462079
"Line.LN6073648-1"            0.00012,      0.0     -0.000910464
"Line.LN5774457-1"            0.10219,     0.02     0.0169109
"Line.LN5534966-3"            0.00506,     0.01     -0.000317112
"Line.LN5859996-1"            0.00006,      0.0     -0.000769391
"Line.LN6138610-2"            1.41945,     0.06     0.44608
"Line.LN6258435-3"            0.00067,      0.0     -0.0118334
"Line.LN5804790-1"            0.00072,      0.0     -0.0240683
"Line.LN6900591-14"           0.00150,     0.00     -0.00718184
"Line.LN6409873-1"            0.01360,     0.02     -0.00188726
"Line.LN6014135-1"            0.00063,      0.0     -0.00016692
"Line.LN6077784-1"            0.31888,     0.03     0.268461
"Line.LN5744338-1"            0.06796,     0.04     0.0314991
"Line.LN6991381-4"            0.00232,     0.01     -0.00862906
"Line.LN5774480-1"            0.26451,     0.12     0.128397
"Line.LN5986938-3"            0.00043,      0.0     -0.000844227
"Line.LN5894230-1"            0.00044,      0.0     -0.0161698
"Line.LN5683858-3"            0.00089,      0.0     -0.00978829
"Line.LN5920279-5"            1.02036,     0.02     2.42629
"Line.LN6439600-1"            0.00020,      0.0     -0.0134502
"Line.LN5589097-1"            0.00011,      0.0     -0.0030869
"Line.LN5651975-1"            0.29076,     0.04     0.093195
"Line.LN5865236-1"            0.00010,      0.0     -0.0011412
"Line.LN5593232-1"            0.00033,      0.0     -0.0186835
"Line.LN5740283-1"            0.00003,      0.0     -0.000886668
"Line.LN6106559-1"            0.00266,     0.01     -0.0111087
"Line.LN5714056-3"            0.71105,     0.11     0.21062
"Line.LN5985355-3"            0.37211,     0.09     0.195047
"Line.LN5531956-1"            0.00013,      0.0     -0.00846507
"Line.LN5650048-1"            0.00014,      0.0     -0.00771249
"Line.LN6290203-1"            0.24635,     0.03     0.195922
"Line.LN6134414-1"            0.00055,      0.0     -0.00790157
"Line.LN6259998-2"            0.00005,      0.0     -0.0017475
"Line.LN6078767-1"            0.24761,     0.01     0.554987
"Line.LN6017300-1"            0.00011,      0.0     -0.0113904
"Line.LN8979257-2"            0.00005,      0.0     -0.0377172
"Line.LN81048109-1"           0.00203,     0.01     -0.050926
"Line.293471"                 0.00027,      0.0     -0.0175969
"Line.LN5534965-2"            0.00002,      0.0     -0.000808791
"Line.LN5655683-1"            0.00421,     0.00     0.00160287
"Line.LN5686247-1"            0.00005,      0.0     -0.000806252
"Line.LN6048642-1"            0.00000,      0.0     -0.0135609
"Line.LN5928544-3"            0.01989,     0.02     0.00377024
"Line.LN6108172-1"            0.00157,     0.01     -0.0253524
"Line.LN5532754-1"            0.12068,     0.02     0.0369517
"Line.LN5591834-1"            0.00109,     0.00     -0.00864673
"Line.LN6347196-2"            0.06566,     0.01     0.00780403
"Line.LN5532741-1"            0.00811,     0.01     -0.00320184
"Line.LN5804803-1"            0.00020,      0.0     -0.0369143
"Line.LN6169248-1"            0.96736,     0.06     0.910256
"Line.LN5532786-2"            0.00009,      0.0     -0.00206632
"Line.LN5744339-1"            0.03833,     0.03     0.0106901
"Line.LN5531255-3"            0.02635,     0.02     0.00787514
"Line.LN5926308-2"            0.23660,     0.03     0.065613
"Line.LN5683856-3"            0.00007,      0.0     -0.00330642
"Line.LN6171502-1"            0.00005,      0.0     -0.000880383
"Line.LN5593228-1"            0.00014,      0.0     -0.00778779
"Line.LN6380800-1"            0.00013,      0.0     -0.0074296
"Line.LN6199525-2"            0.00003,      0.0     -0.00869928
"Line.LN5772710-2"            0.01560,     0.02     -0.00274638
"Line.LN8961760-1"            0.00013,      0.0     -0.00281267
"Line.LN6047556-1"            0.00026,      0.0     -0.0153361
"Line.LN6138603-1"            0.00109,     0.01     -0.0158295
"Line.LN6108139-1"            0.00002,      0.0     -0.00227603
"Line.LN6388581-2"            0.00006,      0.0     -0.00682673
"Line.LN5774460-1"            0.00004,      0.0     -0.00749705
"Line.LN5624387-1"            0.00045,      0.0     -0.0068053
"Line.LN6137087-1"            0.00701,     0.01     -0.000748853
"Line.LN6077809-1"            0.02710,     0.03     0.00725073
"Line.LN6440079-1"            0.00079,      0.0     -0.00625786
"Line.LN5804794-1"            0.01690,     0.02     -0.000365804
"Line.LN5654484-1"            0.00010,      0.0     -0.00358434
"Line.LN5774465-1"            0.00092,     0.01     -0.0147654
"Line.LN5473349-1"            0.91449,     0.02     2.17091
"Line.LN6169253-1"            0.00016,      0.0     -0.00701316
"Line.LN6350536-1"            0.00011,      0.0     -0.0211429
"Line.LN6048523-1"            0.07594,     0.05     0.0280272
"Line.LN5594152-1"            0.07362,     0.04     0.0423937
"Line.LN5865248-1"            0.34706,     0.04     0.096537
"Line.LN6046143-1"            0.00005,      0.0     -0.0111513
"Line.LN5803287-1"            0.00021,      0.0     -0.00268425
"Line.LN5589094-1"            0.12274,     0.05     0.0588547
"Line.LN5954983-1"            0.04229,     0.04     0.0119893
"Line.LN5924696-2"            0.00003,      0.0     -0.00568319
"Line.LN6506311-4"            0.00000,      0.0     -0.00109217
"Line.LN5653493-1"            0.01328,     0.01     0.0056056
"Line.LN5684836-1"            2.90350,     0.05     6.89736
"Line.LN5715016-3"            0.00005,      0.0     -0.00923342
"Line.LN6138614-1"            0.89799,     0.10     0.261018
"Line.LN6077781-2"            9.84096,     0.20     9.21623
"Line.LN5675121-1"            0.00003,      0.0     -0.0125704
"Line.LN5773046-1"            0.16686,     0.07     0.0828659
"Line.LN6380809-2"            0.09536,     0.01     0.0365858
"Line.LN6018326-1"            0.00029,      0.0     -0.00779804
"Line.LN5472356-1"            0.00003,      0.0     -0.00787313
"Line.LN6139641-1"            2.33729,     0.03     5.55687
"Line.LN6018341-1"            0.72132,     0.03     1.60888
"Line.LN6017302-1"            0.13671,     0.05     0.0422484
"Line.LN6199505-1"            0.00002,      0.0     -0.00451348
"Line.LN5682327-1"            0.00368,     0.00     0.00129191
"Line.LN6290243-1"            0.00063,      0.0     -0.00782131
"Line.X8223_48332_SW"         0.01547,     0.00     0.0153995
"Line.LN6413567-3"            0.36219,     0.03     0.125236
"Line.LN5591731-3"            0.07709,     0.00     0.183279
"Line.LN5653470-1"            0.00028,      0.0     -0.0304013
"Line.LN6017316-1"            0.21819,     0.09     0.108
"Line.LN5926299-1"            0.00056,      0.0     -0.00718827
"Line.LN5683831-1"            0.54026,     0.06     0.152987
"Line.LN6352700-1"            0.00008,      0.0     -0.000248018
"Line.LN6047570-1"            0.00004,      0.0     -0.00599139
"Line.LN5624342-1"            2.36514,     0.04     5.62128
"Line.LN6259992-1"            0.00014,      0.0     -0.00562865
"Line.LN5841919-1"            0.00008,      0.0     -0.0112464
"Line.LN6380811-1"            0.06595,     0.06     0.0191709
"Line.LN5683832-1"            0.00014,      0.0     -0.00944356
"Line.LN6077778-1"            0.00015,      0.0     -0.0107781
"Line.LN5561442-2"            3.27349,     0.04     7.78953
"Line.LN6259983-1"            0.00038,      0.0     -0.0201367
"Line.LN5865244-1"            0.02101,     0.02     0.00570134
"Line.LN6350555-1"            0.00005,      0.0     -0.00778409
"Line.LN5714039-1"            0.00260,     0.01     -0.00482565
"Line.LN5889821-1"            3.83211,     0.06     9.11236
"Line.LN5804791-1"            1.52287,     0.12     0.521388
"Line.LN5653486-1"            0.00268,     0.01     -0.00926425
"Line.LN5926286-1"            0.00211,     0.01     -0.00736348
"Line.LN6318859-1"            0.00000,      0.0     -0.00702419
"Line.LN5926316-1"            0.00208,     0.00     -7.63728E-005
"Line.LN5591703-1"            0.00067,      0.0     -0.00735148
"Line.LN5531333-1"            0.00184,     0.01     -0.00284956
"Line.LN6047581-1"            0.00004,      0.0     -0.00356244
"Line.LN6349077-1"            0.00000,      0.0     -0.00501035
"Line.LN6350574-1"            0.02345,     0.01     -0.0337788
"Line.LN6320343-1"            0.03708,     0.03     0.0111186
"Line.LN81048100-5"           0.04065,     0.02     -0.00419081
"Line.LN6348946-1"            0.00002,      0.0     -0.00106519
"Line.LN5744351-1"            0.00016,      0.0     -0.00961647
"Line.LN5472342-1"            0.00004,      0.0     -0.00735591
"Line.LN5621849-1"            0.00008,      0.0     -0.000611938
"Line.LN6379375-1"            0.00004,      0.0     -0.00682486
"Line.LN6028890-1"            0.00064,      0.0     -0.0206308
"Line.LN6380822-1"            0.90927,     0.07     0.792988
"Line.LN5835131-1"            0.25423,     0.03     0.197684
"Line.LN5803262-7"            0.00001,      0.0     -0.00182836
"Line.LN81048089-1"           0.03540,     0.03     -0.0473863
"Line.LN6201699-1"            0.00003,      0.0     -0.000911997
"Line.LN5746548-1"            0.05673,     0.01     0.0166499
"Line.LN5835174-1"            0.42494,     0.17     0.211211
"Line.LN6505947-4"            0.00135,     0.00     0.000428413
"Line.LN5683833-1"            0.31989,     0.15     0.151476
"Line.LN5561439-3"            0.12449,     0.03     0.217298
"Line.LN6109190-1"            0.00120,     0.00     -0.00346154
"Line.LN6258435-2"            0.00014,      0.0     -0.00242354
"Line.LN5804819-1"            0.00022,      0.0     -0.0232115
"Line.LN5593215-1"            0.08698,     0.04     0.0407471
"Line.LN5833717-1"            0.24744,     0.02     0.215894
"Line.LN6199557-1"            0.46548,     0.05     0.400991
"Line.LN5744332-1"            0.00008,      0.0     -0.0078917
"Line.LN5558790-1"            0.86116,     0.01     2.04606
"Line.LN6078692-1"            0.08858,     0.04     0.0418932
"Line.LN5956482-1"            0.01663,     0.00     0.00860558
"Line.LN5593225-1"            0.00018,      0.0     -0.00942993
"Line.LN6900591-26"           0.00047,      0.0     -0.00014388
"Line.LN5952393-1"            0.00237,     0.01     -0.00350531
"Line.LN6350531-1"            0.02297,     0.06     -0.037707
"Line.LN5965099-10"           0.02462,     0.01     0.0138706
"Line.LN6047568-1"            0.45232,     0.19     0.221015
"Line.LN5926292-1"            0.00013,      0.0     -0.00815603
"Line.LN6380806-1"            0.00116,     0.00     -0.00739964
"Line.LN6341781-3"            0.00017,      0.0     -0.0114235
"Line.LN8979367-1"            0.00043,      0.0     -0.0643487
"Line.LN6018340-1"            0.00126,     0.01     -0.0134623
"Line.LN6380847-1"            0.47959,     0.08     0.12149
"Line.LN8961797-1"            0.00145,     0.01     -0.0957828
"Line.LN6077797-1"            0.00767,     0.02     -0.0129567
"Line.LN6077773-1"            0.00543,     0.01     -0.00789901
"Line.LN5837496-4"            0.00008,      0.0     -0.00414264
"Line.LN5623392-1"            0.00424,     0.01     -0.0141051
"Line.LN5624380-1"            0.00127,     0.01     -0.0151186
"Line.LN6422809-2"            0.12545,     0.00     0.117797
"Line.LN5799561-1"            1.08273,     0.04     2.44009
"Line.LN6229818-1"            0.00006,      0.0     -0.010256
"Line.LN5593230-1"            0.18264,     0.07     0.093291
"Line.LN5563901-3"            2.05731,     0.03     4.89273
"Line.LN6320339-1"            0.00722,     0.02     -0.0190905
"Line.LN5986927-1"            0.00004,      0.0     -0.0019669
"Line.LN6047567-1"            0.00018,      0.0     -0.00641876
"Line.LN5714047-1"            0.04143,     0.03     0.0137347
"Line.LN5563934-1"            0.00900,     0.02     -0.00794995
"Line.LN6169249-3"            0.00002,      0.0     -0.000561066
"Line.LN6230800-1"            0.00012,      0.0     -0.00466737
"Line.LN5985339-2"            0.00055,      0.0     -0.00970961
"Line.LN5898059-3"            0.00013,      0.0     -0.00297693
"Line.LN5956457-2"            0.07950,     0.01     0.0608674
"Line.LN5865229-1"            0.01969,     0.02     0.00401647
"Line.LN6018331-1"            0.62594,     0.02     1.40896
"Line.LN6199535-1"            0.00025,      0.0     -0.00910416
"Line.LN5502538-1"            0.73516,     0.10     0.230559
"Line.LN5742816-2"            0.01482,     0.02     -0.00215166
"Line.LN6229803-3"            0.00005,      0.0     -0.00295743
"Line.LN5986930-1"            0.05710,     0.06     0.00761821
"Line.LN6350532-1"            0.00011,      0.0     -0.00508047
"Line.LN5588016-3"            0.00718,     0.01     0.00250896
"Line.LN5623409-1"            0.00105,     0.01     -0.00908321
"Line.LN6350560-1"            0.01862,     0.02     0.00410929
"Line.LN5472347-1"            0.00143,     0.00     -0.00613371
"Line.LN6290199-1"            6.37547,     0.11     15.1363
"Line.LN6409775-3"            0.00228,     0.00     -0.00106429
"Line.LN5591811-1"            0.02910,     0.04     -0.00391642
"Line.LN6229808-1"            0.00013,      0.0     -0.00868652
"Line.LN5651985-3"            0.00037,      0.0     -0.00524025
"Line.LN6047577-1"            3.57048,     0.16     1.12207
"Line.LN5528574-2"            0.00002,      0.0     -0.000598655
"Line.LN5896827-1"            0.00015,      0.0     -0.00845327
"Line.LN5774451-1"            0.01666,     0.02     0.00104354
"Line.LN5504876-1"            0.01008,     0.01     -0.034799
"Line.LN5860423-4"            1.31647,     0.03     1.23188
"Line.LN6138613-1"            0.00007,      0.0     -0.00496243
"Line.LN6077771-1"            0.03308,     0.02     0.0125164
"Line.LN6138636-1"            0.00052,      0.0     -0.0153348
"Line.LN6199512-1"            0.00129,     0.01     -0.0165854
"Line.LN6047564-1"            0.00059,      0.0     -0.00827852
"Line.LN6258460-3"            0.00052,      0.0     -0.029081
"Line.LN5683810-1"            0.12753,     0.02     0.099977
"Line.LN5852082-1"            0.00086,      0.0     -0.000429359
"Line.LN6380816-1"            0.00006,      0.0     -0.00863735
"Line.LN6108138-2"            0.00026,      0.0     -0.00124217
"Line.LN6167732-2"            0.00004,      0.0     -0.00181566
"Line.LN6229831-1"            0.07690,     0.03     0.0384311
"Line.LN6504020-2"           30.57535,     0.28     72.2224
"Line.LN81354561-2"           0.00002,      0.0     -0.00201927
"Line.LN5654476-1"            0.00059,      0.0     -0.0106196
"Line.LN6987572-4"            0.02076,     0.01     0.0117449
"Line.LN6260025-1"            0.00016,      0.0     -0.00852398
"Line.LN5926291-1"            0.23084,     0.03     0.180989
"Line.LN8961800-1"            0.01086,     0.02     -0.0892688
"Line.LN6437757-1"            0.00008,      0.0     -0.00236204
"Line.LN5594245-1"            0.00003,      0.0     -0.0086816
"Line.LN5957492-1"            0.00001,      0.0     -0.000289871
"Line.LN5956464-1"            0.03075,     0.00     0.0117983
"Line.LN6171683-1"            0.00009,      0.0     -0.00124088
"Line.LN5625715-1"            0.00002,      0.0     -0.000301431
"Line.LN5746706-2"            0.00137,     0.00     -0.00325308
"Line.LN5653491-1"            0.00031,      0.0     -0.00787966
"Line.LN5472361-1"            0.00005,      0.0     -0.0111871
"Line.LN5683856-2"            0.00002,      0.0     -0.00105241
"Line.LN5565091-1"            0.00003,      0.0     -0.00125832
"Line.LN5653466-1"            0.00080,      0.0     -0.0150942
"Line.LN5534966-2"            0.00276,     0.00     -0.000173146
"Line.LN6409762-1"            0.00008,      0.0     -0.0079444
"Line.LN6109158-1"            3.99880,     0.18     1.25078
"Line.LN5835145-1"            0.00086,      0.0     -0.0196786
"Line.LN5774493-1"            0.00408,     0.01     -0.00952556
"Line.LN5835143-1"            5.05970,     0.28     1.53801
"Line.LN5926315-1"            0.00001,      0.0     -0.0013569
"Line.LN5895786-1"            0.00004,      0.0     -0.00748598
"Line.LN81048102-5"           0.00183,     0.00     -0.00150432
"Line.LN5861084-1"            0.00036,      0.0     -0.000918281
"Line.LN5774455-2"            0.00011,      0.0     -0.00205554
"Line.LN6108132-1"            0.00004,      0.0     -0.0101306
"Line.LN6077775-1"            0.00117,     0.01     -0.0170733
"Line.LN5591718-1"            0.00012,      0.0     -0.0127258
"Line.LN5653461-1"            0.00013,      0.0     -0.00874953
"Line.LN6290229-1"            0.00099,     0.00     -0.00258864
"Line.LN5774463-1"            0.00004,      0.0     -0.0100449
"Line.LN6380814-1"            0.00007,      0.0     -0.00740047
"Line.LN5895776-1"            0.00064,      0.0     -0.00726253
"Line.LN6200439-1"            0.00223,     0.00     -0.00303543
"Line.LN6138601-1"            0.00009,      0.0     -0.00165835
"Line.LN5927421-1"            0.00011,      0.0     -0.00643914
"Line.LN5532748-5"            0.46634,     0.03     0.426002
"Line.LN6506318-4"            0.00002,      0.0     -0.000420274
"Line.LN6288856-3"            0.09244,     0.05     0.0430042
"Line.LN5653452-1"            3.84802,     0.06     9.13563
"Line.LN6290205-1"            0.34134,     0.03     0.310394
"Line.LN6350547-1"            0.00015,      0.0     -0.00853744
"Line.LN6229800-1"            0.03123,     0.02     0.0109666
"Line.LN6138609-1"            0.13017,     0.05     0.0628946
"Line.LN81048090-1"           0.00000,      0.0     -0.0647051
"Line.LN5683828-1"            0.18824,     0.08     0.09262
"Line.LN8979256-1"            0.00018,      0.0     -0.145318
"Line.LN6506317-2"            0.00018,      0.0     -0.0282891
"Line.LN6078744-1"            0.00028,      0.0     -0.00451722
"Line.LN81018875-1"           0.00003,      0.0     -0.00376764
"Line.LN6078691-1"            0.15496,     0.09     0.0620085
"Line.LN6258439-1"            0.39607,     0.07     0.178932
"Line.LN6108164-1"            0.22680,     0.06     0.1185
"Line.LN5927379-2"            0.00025,      0.0     -0.00931116
"Line.LN6110365-1"            0.00072,      0.0     -0.0123845
"Line.LN5773040-1"            0.34542,     0.06     0.147347
"Line.V7173_48332_SW"         0.21868,     0.00     0.218612
"Line.LN5534969-2"            0.79927,     0.01     1.90029
"Line.LN6015891-1"            0.00000,      0.0     -0.0140712
"Line.LN5683816-1"            0.67306,     0.10     0.27138
"Line.LN6199561-1"            0.00046,      0.0     -0.00735434
"Line.LN6900591-12"           0.00292,     0.01     -0.00580038
"Line.LN6411363-1"            0.00044,      0.0     -0.0127161
"Line.LN6108130-6"            0.00025,      0.0     -0.0240957
"Line.LN5837516-1"            0.00010,      0.0     -0.00261776
"Line.LN6017301-4"            0.00007,      0.0     -0.0028521
"Line.LN5981121-1"            0.00007,      0.0     -0.0145209
"Line.LN81048107-4"           0.00087,      0.0     -0.0219552
"Line.LN5472374-1"            0.04967,     0.03     0.0204425
"Line.LN5746550-2"            0.00001,      0.0     -0.00123929
"Line.LN5561437-1"            0.07160,     0.03     -0.0378049
"Line.LN6439986-3"            0.00010,      0.0     -0.00382463
"Line.LN5744324-1"            0.01365,     0.03     -0.014645
"Line.LN6376708-1"            0.00022,      0.0     -0.00107396
"Line.LN5895816-2"            0.00092,     0.00     -0.00852471
"Line.LN5593235-1"            0.00027,      0.0     -0.00985482
"Line.LN81354563-2"           0.00132,     0.00     -0.00459586
"Line.LN5866260-1"            0.00011,      0.0     -0.00581364
"Line.LN6018243-1"            0.00889,     0.02     -0.00648517
"Line.LN5928743-3"            0.00082,      0.0     -0.0149622
"Line.LN5957501-1"            0.00005,      0.0     -0.00505763
"Line.LN6379357-1"            0.00211,     0.01     -0.00219481
"Line.LN6291252-2"            0.32018,     0.01     0.714195
"Line.LN6440002-3"            0.00750,     0.01     0.00240231
"Line.LN6076346-1"            0.88978,     0.16     0.397937
"Line.LN8978752-1"            0.00182,     0.00     -0.0169848
"Line.LN5621834-1"            0.00607,     0.02     -0.0129861
"Line.LN6108123-1"            0.00008,      0.0     -0.00811833
"Line.LN6505952-4"            0.00001,      0.0     -0.000347872
"Line.LN5835159-1"            0.00004,      0.0     -0.00647722
"Line.LN5698090-2"            0.00011,      0.0     -0.000525356
"Line.LN5714050-1"            0.00036,      0.0     -0.00909686
"Line.LN5502529-1"            0.00002,      0.0     -0.000390745
"Line.LN5594236-1"            0.60974,     0.02     1.3741
"Line.LN5593248-1"            0.00011,      0.0     -0.0166202
"Line.LN5865272-1"            0.30509,     0.06     0.0831209
"Line.LN5924696-3"            0.00003,      0.0     -0.00661165
"Line.LN5589096-1"            0.00002,      0.0     -0.00124062
"Line.LN6017295-1"            0.41413,     0.13     0.216691
"Line.LN5970852-1"            0.02558,     0.01     0.0170093
"Line.LN5683820-1"            0.00008,      0.0     -0.00301649
"Line.LN6286966-3"            0.00003,      0.0     -0.00286683
"Line.LN6167715-1"            0.00001,      0.0     -0.00121109
"Line.LN6108140-2"            0.00004,      0.0     -0.00170779
"Line.LN6228279-1"            0.00027,      0.0     -0.00260781
"Line.LN5803264-2"            0.00003,      0.0     -0.00123365
"Line.LN6132680-1"            0.93400,     0.15     0.39676
"Line.LN5531195-1"            0.19251,     0.01     0.42547
"Line.LN5985361-1"            0.71365,     0.12     0.186517
"Line.LN6102293-1"            0.00396,     0.01     -0.0168146
"Line.LN8989758-1"            0.00010,      0.0     -0.020625
"Line.LN6229790-1"            0.00149,     0.01     -0.00750496
"Line.LN5956469-1"            0.00050,      0.0     -0.00677562
"Line.LN5803270-3"            0.00023,      0.0     -0.00333489
"Line.LN81048102-6"           0.00187,     0.00     -0.00153432
"Line.LN6440070-1"            0.00000,      0.0     -0.031357
"Line.LN6048626-1"            3.30753,     0.04     7.86279
"Line.LN6076248-1"            0.10989,     0.03     0.0828839
"Line.LN6137083-1"            0.00000,      0.0     -0.00562362
"Line.LN6286261-1"            0.00062,      0.0     -0.0090063
"Line.LN5653477-1"            0.00064,      0.0     -0.0104229
"Line.LN6078810-1"            0.00032,      0.0     -0.00622007
"Line.LN6199526-1"            0.00004,      0.0     -0.00761176
"Line.LN6108125-2"            2.01138,     0.03     4.78237
"Line.LN6108149-1"            0.00055,      0.0     -0.0127416
"Line.LN6230759-1"            0.00016,      0.0     -0.017562
"Line.LN8979249-1"            0.00005,      0.0     -0.0113227
"Line.LN5865237-1"            0.00009,      0.0     -0.00952942
"Line.LN5706733-2"            0.00007,      0.0     -0.000629367
"Line.LN5745348-1"            0.67297,     0.02     1.51222
"Line.LN5898059-2"            0.00038,      0.0     -0.00867184
"Line.LN5744367-1"            0.14448,     0.09     0.0630791
"Line.LN5773136-1"            0.00006,      0.0     -0.0149615
"Line.LN5472403-2"            0.00700,     0.00     -0.00282703
"Line.LN5712496-1"            0.00014,      0.0     -0.00310518
"Line.LN5772710-1"            0.02364,     0.03     -0.00051823
"Line.LN6139544-1"            0.26172,     0.12     0.174984
"Line.LN6015788-2"            0.02412,     0.03     0.00252344
"Line.LN5591702-1"            0.12215,     0.08     0.051241
"Line.LN5986923-1"            0.03559,     0.04     0.00208657
"Line.LN6301772-2"            0.00250,     0.00     -0.00102784
"Line.LN6001653-2"            0.27420,     0.05     0.0628125
"Line.LN6017283-1"            0.00196,     0.01     -0.00848012
"Line.LN5686079-1"            0.48199,     0.04     0.406763
"Line.LN5527264-7"            0.90171,     0.02     2.14393
"Line.LN5683813-1"            0.00001,      0.0     -0.0028128
"Line.LN5986935-1"            0.62214,     0.08     0.170748
"Line.LN5956457-3"            0.11981,     0.02     0.0917315
"Line.LN5654471-1"            0.71197,     0.02     1.60134
"Line.LN6409800-1"            0.00008,      0.0     -0.00494661
"Line.LN6411365-1"            0.00038,      0.0     -0.0269135
"Line.LN6320328-1"            0.07545,     0.07     0.0205333
"Line.LN5712477-3"            0.03964,     0.04     0.00854887
"Line.LN5621857-3"            0.00007,      0.0     -0.0134398
"Line.LN6440071-1"            0.09640,     0.08     0.0304559
"Line.LN5472355-1"            0.00065,      0.0     -0.0109057
"Line.LN6351523-3"            0.04868,     0.01     0.0259716
"Line.LN6047595-2"            0.00153,     0.00     -0.0833176
"Line.LN5800724-1"            0.00004,      0.0     -0.00105251
"Line.LN6422809-3"            0.29008,     0.01     0.272385
"Line.LN5532744-1"            0.00001,      0.0     -0.00244366
"Line.LN5594242-1"            7.60137,     0.07     17.9537
"Line.LN8979343-3"            0.00035,      0.0     -0.00408422
"Line.LN5835137-1"            0.00024,      0.0     -0.0114513
"Line.LN6170199-2"            0.00002,      0.0     -0.00248847
"Line.LN5683821-1"            0.00079,      0.0     -0.0110831
"Line.LN81048110-2"           0.00066,      0.0     -0.040598
"Line.LN6506306-2"            0.00115,     0.00     -0.0138081
"Line.LN5593219-1"            0.00178,     0.01     -0.00897868
"Line.LN81048087-1"           0.00476,     0.00     -0.000492589
"Line.LN6268990-4"            0.00242,     0.00     0.000229666
"Line.LN8968082-2"            0.00233,     0.01     -0.0661189
"Line.LN5744344-1"            0.01825,     0.02     0.00435063
"Line.LN5593220-2"            0.00030,      0.0     -0.00725526
"Line.V9287_48332_SW"         0.00047,      0.0     0.000447679
"Line.LN6019477-1"            0.00721,     0.00     0.00284155
"Line.LN5593227-1"            0.00008,      0.0     -0.00112258
"Line.LN6409869-1"            0.00000,      0.0     -0.00586507
"Line.LN6321419-2"            0.00514,     0.01     -0.0130359
"Line.LN6348954-1"            0.00018,      0.0     -0.0100825
"Line.LN6201695-2"            0.00002,      0.0     -0.00117599
"Line.LN6048635-1"            0.00441,     0.01     -0.011179
"Line.LN6199519-1"            0.15234,     0.07     0.0730187
"Line.LN6505938-4"            0.00002,      0.0     -0.000298748
"Line.LN5472375-1"            0.03884,     0.01     0.0115502
"Line.LN5835124-1"            0.00045,      0.0     -0.00648795
"Line.LN6103927-1"            0.00005,      0.0     -0.000785203
"Line.LN6138622-1"            0.00023,      0.0     -0.00371571
"Line.LN5776673-1"            0.00031,      0.0     -0.0004172
"Line.LN6074369-1"            0.00018,      0.0     -0.00241138
"Line.LN5621826-1"            0.00008,      0.0     -0.00384111
"Line.LN6506312-2"            0.01193,     0.02     -0.00437546
"Line.LN6046046-1"            0.00013,      0.0     -0.00755783
"Line.LN6138589-1"            0.00002,      0.0     -0.00476364
"Line.LN6258445-1"            0.00002,      0.0     -0.000857357
"Line.LN5653480-1"            4.49668,     0.09     4.23237
"Line.LN5717630-1"            0.02169,     0.02     0.00855415
"Line.LN5956463-1"            1.88570,     0.15     0.653854
"Line.LN5744328-1"            0.00215,     0.00     -0.00120968
"Line.LN8979254-1"            0.00007,      0.0     -0.0141754
"Line.LN5620694-1"            0.00037,      0.0     -0.00670945
"Line.LN6048634-1"            5.40352,     0.05     12.7634
"Line.LN5895779-1"            0.00005,      0.0     -0.005927
"Line.LN5951197-2"            0.00014,      0.0     -0.0218366
"Line.LN5563942-3"            4.64390,     0.04     10.9634
"Line.LN5835123-1"            0.00112,     0.01     -0.0174688
"Line.LN5956483-1"            0.00090,     0.00     -0.00803139
"Line.LN6291153-1"            0.00038,      0.0     -0.00829807
"Line.LN5683841-1"            0.00073,      0.0     -0.0103834
"Line.LN5804802-1"            1.46920,     0.13     0.521578
"Line.LN6167753-1"            0.00004,      0.0     -0.00945989
"Line.LN6047569-1"            0.00011,      0.0     -0.0116879
"Line.LN6229809-1"            0.71149,     0.10     0.208877
"Line.LN5804781-1"            0.01751,     0.02     0.000436022
"Line.LN6352701-1"            0.00000,      0.0     -0.00140747
"Line.LN5955074-2"            0.01619,     0.02     -0.00225205
"Line.LN6229805-1"            0.00151,     0.01     -0.0108511
"Line.LN6411376-1"            0.00127,     0.00     0.000177036
"Line.LN5654485-1"            0.00006,      0.0     -0.0145084
"Line.LN5746550-3"            0.00005,      0.0     -0.00820175
"Line.LN6232159-1"            0.00000,      0.0     -0.000529904
"Line.LN6412346-1"            0.00031,      0.0     -0.0177588
"Line.LN6350548-1"            0.00136,     0.01     -0.0071645
"Line.LN6106658-1"            0.02623,     0.02     0.011108
"Line.LN6047554-1"            0.00011,      0.0     -0.00344125
"Line.LN5956458-1"            0.00016,      0.0     -0.00965128
"Line.LN5752776-2"            0.06252,     0.01     0.0222679
"Line.LN5651988-1"            0.00022,      0.0     -0.00578663
"Line.LN5562935-1"            0.00039,      0.0     -0.012116
"Line.LN5502521-1"            0.00145,     0.01     -0.0060582
"Line.LN6409797-3"            0.05329,     0.04     0.0187188
"Line.LN5926332-1"            0.00040,      0.0     -0.00803936
"Line.LN5742811-4"            0.03261,     0.00     0.0280106
"Line.LN6505943-3"            0.00010,      0.0     -0.000173592
"Line.LN6228278-1"            0.00462,     0.00     0.00148409
"Line.LN5896844-1"            0.00002,      0.0     -0.00330972
"Line.LN5805761-1"            5.98702,     0.06     14.1338
"Line.LN5867683-2"            0.97618,     0.13     0.382871
"Line.LN5956467-1"            0.09375,     0.06     0.0355492
"Line.LN5683804-1"            0.00704,     0.01     -0.0075485
"Line.LN6505940-2"            0.04178,     0.03     0.0148001
"Line.LN6139649-1"            0.00041,      0.0     -0.00305632
"Line.LN5982822-1"            0.00018,      0.0     -0.00491767
"Line.LN81354564-11"          0.00848,     0.01     -0.0294636
"Line.LN5807087-1"            0.00028,      0.0     -0.000658527
"Line.LN5517002-3"            0.05562,     0.02     0.0308643
"Line.A8735_48332_SW"         0.84463,     0.01     0.844555
"Line.LN5710794-3"            2.58466,     0.02     6.09177
"Line.LN6388581-1"            0.00043,      0.0     -0.0038646
"Line.LN5499793-1"            0.00034,      0.0     -0.0159406
"Line.LN5653472-1"            0.00165,     0.00     -0.00443722
"Line.LN6288693-1"            0.00008,      0.0     -0.000841939
"Line.LN6199518-1"            0.13524,     0.03     0.00206549
"Line.LN5738651-1"            0.00029,      0.0     -0.0109852
"Line.LN5804836-1"            0.26192,     0.05     0.0713379
"Line.LN5926320-1"            0.00009,      0.0     -0.0138504
"Line.LN6121686-1"            0.00034,      0.0     -0.0118304
"Line.LN5532790-1"            0.00245,     0.01     -0.00874491
"Line.LN6258470-1"            0.00004,      0.0     -0.0106228
"Line.LN6411407-1"            0.01709,     0.01     -0.0262334
"Line.LN5636753-1"            0.00254,     0.01     -0.00291525
"Line.LN6321412-1"            0.00025,      0.0     -0.00129488
"Line.LN5833652-1"            0.02915,     0.03     0.00694464
"Line.LN5803262-1"            0.00008,      0.0     -0.00295174
"Line.LN6438273-3"            0.00881,     0.01     -0.0324997
"Line.LN6229827-1"            0.00011,      0.0     -0.00150997
"Line.LN5651995-1"            0.00055,      0.0     -0.00839667
"Line.LN5804793-1"            0.01898,     0.02     0.00342912
"Line.LN5894220-2"            0.00038,      0.0     -0.00584749
"Line.LN6413711-1"            0.00016,      0.0     -0.00663167
"Line.LN5837361-8"            0.00000,      0.0     -0.00074242
"Line.LN6506316-3"            0.00342,     0.02     -0.0572481
"Line.LN5652982-1"            0.00455,     0.02     -0.0193952
"Line.LN5624288-1"            2.37254,     0.03     5.66128
"Line.LN6048641-1"            0.00112,     0.00     -0.00480298
"Line.LN5686078-3"            0.00010,      0.0     -0.00157202
"Line.LN8939784-1"            0.00083,      0.0     -0.0206309
"Line.LN5989326-1"            0.00000,      0.0     -0.000786246
"Line.LN5898057-1"            0.00006,      0.0     -0.00106321
"Line.L5437_48332_SW"         0.29041,     0.00     0.290345
"Line.LN5535139-1"            0.15690,     0.00     0.37316
"Line.LN5653463-1"            0.00007,      0.0     -0.0116566
"Line.LN6137084-3"            0.00000,      0.0     -0.00273954
"Line.LN5472343-1"            0.00779,     0.01     -0.00157813
"Line.LN5712477-2"            0.00246,     0.00     0.000530643
"Line.LN5501004-1"            0.03374,     0.02     -0.0186469
"Line.LN5744357-1"            0.00578,     0.02     -0.0123505
"Line.LN6350544-3"            0.72007,     0.04     0.654242
"Line.LN6900590-2"            0.00120,     0.00     0.000359883
"Line.LN6201696-2"            0.00013,      0.0     -0.00203191
"Line.LN5926324-1"            0.04779,     0.03     0.0175432
"Line.LN5532749-2"            0.00002,      0.0     -0.000722817
"Line.LN8940663-1"            0.00072,      0.0     -0.171533
"Line.LN5773980-1"            0.00004,      0.0     -0.00799864
"Line.LN6350545-1"            0.00010,      0.0     -0.0115963
"Line.LN5653454-1"            0.00010,      0.0     -0.0131849
"Line.LN5623401-1"            0.00046,      0.0     -0.00508199
"Line.LN5863718-1"            0.00000,      0.0     -0.000844784
"Line.LN5712584-2"            0.00520,     0.01     -0.000704746
"Line.LN5924702-1"            0.00001,      0.0     -0.00874931
"Line.LN6047596-1"            0.00303,     0.01     -0.00636671
"Line.LN5744370-3"            0.00009,      0.0     -0.00458235
"Line.LN5861005-3"            0.87805,     0.01     2.08618
"Line.LN5776665-1"            0.00746,     0.00     0.00358817
"Line.LN5928546-1"            0.00007,      0.0     -0.000714107
"Line.LN6229797-1"            0.00034,      0.0     -0.00805476
"Line.LN5714915-1"            0.00014,      0.0     -0.00812835
"Line.LN6411385-1"            0.00023,      0.0     -0.013381
"Line.LN5623406-1"            0.00118,     0.00     -0.0107918
"Line.LN5683822-1"            0.00022,      0.0     -0.0079035
"Line.LN6327237-2"            0.00249,     0.01     -0.00454098
"Line.LN6077785-1"            0.00017,      0.0     -0.0110521
"Line.LN5803262-8"            0.00002,      0.0     -0.00561464
"Line.LN5714080-1"            0.33045,     0.04     0.0887529
"Line.LN5526906-2"            0.00944,     0.00     0.00798185
"Line.LN6108145-1"            0.00969,     0.01     -0.0298512
"Line.LN5591710-3"            1.79626,     0.03     4.27076
"Line.LN6078776-1"            0.00000,      0.0     -0.0683838
"Line.LN5576174-4"            2.00833,     0.03     4.77663
"Line.LN5926301-1"            0.03261,     0.01     0.0047974
"Line.LN6078768-1"            0.32792,     0.01     0.73216
"Line.LN6047578-1"            0.47607,     0.06     0.15139
"Line.LN8961800-3"            0.00007,      0.0     -0.00440302
"Line.LN5562927-1"            0.11369,     0.05     0.0542367
"Line.LN81048107-1"           0.01570,     0.02     -0.0312104
"Line.LN6320368-1"            0.24537,     0.05     0.0686857
"Line.LN5803293-1"            0.00879,     0.02     -0.0108925
"Line.LN6138604-1"            0.22635,     0.04     0.0554351
"Line.LN8961799-1"            0.00078,      0.0     -0.0164922
"Line.LN5957460-1"            0.00057,      0.0     -0.00746611
"Line.LN6169261-1"            0.64029,     0.05     0.545832
"Line.LN5836089-1"            0.03771,     0.05     0.00194792
"Line.LN5773028-1"            0.00085,      0.0     -0.00576594
"Line.LN6138612-1"            0.00090,     0.01     -0.0510113
"Line.LN6017304-1"            0.00000,      0.0     -0.000211326
"Line.LN6440004-2"            0.00002,      0.0     -0.0009951
"Line.LN5866308-1"            4.86309,     0.04     11.4932
"Line.LN5562919-1"            0.05780,     0.04     0.0217855
"Line.LN6061814-1"            0.00013,      0.0     -0.00845444
"Line.LN6291152-1"            0.00699,     0.01     -0.00365054
"Line.LN5621864-1"            0.00051,      0.0     -0.00256189
"Line.LN5712475-1"            0.00002,      0.0     -0.000538609
"Line.LN5500984-1"            0.00270,     0.00     0.000717563
"Line.LN5472367-1"            0.00026,      0.0     -0.00941208
"Line.LN5926309-3"            0.00331,     0.01     -0.0131653
"Line.LN5625547-1"            0.00129,     0.00     -0.000179567
"Line.LN6407748-2"            0.03375,     0.02     0.0204014
"Line.LN6199513-1"            0.00022,      0.0     -0.00531133
"Line.LN6229795-3"            0.00012,      0.0     -0.00118068
"Line.LN5895802-1"            0.00006,      0.0     -0.00333412
"Line.LN5926293-1"            0.00010,      0.0     -0.009809
"Line.LN5916435-1"            0.00000,      0.0     -0.0108892
"Line.LN6344714-1"            0.00006,      0.0     -0.000239397
"Line.LN6077815-4"            0.51441,     0.09     0.231265
"Line.LN6259993-1"            0.04114,     0.04     0.0103605
"Line.LN5744358-1"            0.00027,      0.0     -0.0090334
"Line.LN5708136-1"            0.00019,      0.0     -0.000171735
"Line.LN6350542-1"            8.64581,     0.17     8.09155
"Line.LN6351517-1"            0.00186,     0.01     -0.00697968
"Line.LN5531255-2"            0.00387,     0.00     0.00115669
"Line.LN6298585-1"            1.29818,     0.15     0.466142
"Line.LN5774474-1"            0.00005,      0.0     -0.00839403
"Line.LN5683827-3"            0.00007,      0.0     -0.00331299
"Line.LN5835129-1"            0.02403,     0.03     -0.000496803
"Line.LN6506308-1"            0.00022,      0.0     -0.00844717
"Line.LN5532751-1"            0.04310,     0.02     0.0204742
"Line.LN6350528-1"            0.00146,     0.01     -0.00753719
"Line.LN5865228-1"            0.00288,     0.01     -0.00734554
"Line.LN5803270-2"            0.00011,      0.0     -0.00153188
"Line.LN5472360-1"            1.98766,     0.11     0.612859
"Line.LN81354564-9"           0.00019,      0.0     -0.00514754
"Line.LN6900591-20"           0.00050,      0.0     -0.00793782
"Line.LN6439975-1"            0.00482,     0.00     0.00190002
"Line.LN6259981-2"            0.00009,      0.0     -0.00956353
"Line.LN6350539-1"            0.01113,     0.02     -0.00575122
"Line.LN5926300-1"            0.00193,     0.01     -0.00783097
"Line.LN6261021-1"           15.97646,     0.14     37.7382
"Line.LN6141147-1"            0.40045,     0.10     0.213662
"Line.LN6411390-1"            0.00018,      0.0     -0.00807477
"Line.LN6351519-1"           13.77391,     0.12     32.5353
"Line.LN8945012-1"            0.00003,      0.0     -0.00256553
"Line.LN5928544-2"            0.01089,     0.01     0.0020633
"Line.LN6379450-3"            0.00000,      0.0     -0.015244
"Line.LN5503576-1"            0.53569,     0.02     1.20067
"Line.LN6320353-1"            0.00003,      0.0     -0.00510669
"Line.LN6198013-2"            0.11870,     0.04     0.0376125
"Line.LN6138597-1"            0.00919,     0.01     -0.00329224
"Line.LN5835132-1"            0.00019,      0.0     -0.00961215
"Line.LN5739188-1"            0.50528,     0.04     0.453978
"Line.LN5776667-1"            0.00178,     0.00     0.000383676
"Line.LN6326286-2"            0.00006,      0.0     -0.0129692
"Line.LN6229789-1"            0.00025,      0.0     -0.0117037
"Line.LN6170291-1"            0.00494,     0.01     -0.00563888
"Line.LN6350538-1"            0.23408,     0.05     0.0315211
"Line.LN5714052-2"            0.00010,      0.0     -0.00214971
"Line.LN5956487-1"            0.21605,     0.03     0.167509
"Line.LN5472384-2"            0.00001,      0.0     -0.00272967
"Line.LN6047575-2"            0.00002,      0.0     -0.00082001
"Line.LN5744343-3"            0.00003,      0.0     -0.00169467
"Line.LN6049824-1"            0.00004,      0.0     -0.00111623
"Line.LN6320329-1"            1.21957,     0.10     0.4227
"Line.LN5955074-3"            0.00173,     0.00     -0.000240915
"Line.LN5863823-1"            0.92715,     0.07     0.305527
"Line.LN5562931-3"            0.00004,      0.0     -0.000966746
"Line.LN6380835-1"            0.00002,      0.0     -0.00611168
"Line.LN6991380-4"            0.00027,      0.0     -0.00854525
"Line.LN6320325-1"            0.00077,      0.0     -0.0110262
"Line.LN5501000-1"            0.00010,      0.0     -0.00705826
"Line.LN6320364-1"            0.00007,      0.0     -0.011896
"Line.LN5865232-1"            0.12795,     0.08     0.0547666
"Line.LN6292465-2"            0.04254,     0.02     0.0203116
"Line.LN8979251-1"            0.00007,      0.0     -0.0145135
"Line.LN6351512-1"            0.00001,      0.0     -0.00113053
"Line.LN5644788-1"            0.00003,      0.0     -0.0088804
"Line.LN6207101-1"            0.00030,      0.0     -0.00838131
"Line.LN5831676-1"            0.00013,      0.0     -0.00732665
"Line.LN5502533-1"            5.55711,     0.29     1.73357
"Line.LN6256144-3"            3.98645,     0.19     1.24835
"Line.LN5744359-1"            0.00122,     0.01     -0.0187997
"Line.LN5804785-1"            0.00383,     0.01     -0.0296599
"Line.LN8979346-4"            0.00006,      0.0     -0.0020775
"Line.LN81048100-3"           0.02975,     0.02     -0.0267129
"Line.LN5986938-2"            0.00058,      0.0     -0.00113614
"Line.LN81018876-1"           0.00497,     0.00     -0.000829556
"Line.LN5653459-1"            0.00020,      0.0     -0.0117085
"Line.LN6290239-1"            0.00023,      0.0     -0.0118112
"Line.LN5593222-1"            2.19198,     0.18     0.751499
"Line.LN5561432-2"            0.08582,     0.09     0.0183479
"Line.LN5896825-1"            0.49057,     0.02     1.10381
"Line.LN6413565-1"            0.00585,     0.00     0.00179881
"Line.LN5712587-2"            0.08587,     0.05     0.03636
"Line.LN6326286-1"            0.00026,      0.0     -0.014274
"Line.LN5472406-1"            0.00006,      0.0     -0.00833749
"Line.LN8945010-1"            0.00014,      0.0     -0.00355879
"Line.LN5865245-1"            0.00091,     0.01     -0.0180277
"Line.LN5501089-1"            0.00005,      0.0     -0.0129579
"Line.LN5712587-3"            0.02900,     0.02     0.0122746
"Line.LN5503544-1"            1.15020,     0.02     2.73543
"Line.LN5534969-3"            0.50437,     0.01     1.19914
"Line.LN8979248-1"            0.00004,      0.0     -0.00857646
"Line.LN5594151-1"            0.00007,      0.0     -0.00358314
"Line.LN5836178-1"            4.13412,     0.06     9.82808
"Line.LN6140777-1"            0.00577,     0.00     0.0020342
"Line.LN6108135-1"            0.00010,      0.0     -0.0110481
"Line.LN6381764-1"            0.01292,     0.02     -0.000392242
"Line.LN6348948-1"           10.54513,     0.14     25.0864
"Line.LN5502525-1"            0.00012,      0.0     -0.0089165
"Line.LN5651977-3"            0.00061,      0.0     -0.00232798
"Line.LN8961800-2"            0.00470,     0.01     -0.074984
"Line.LN5956502-1"            0.00000,      0.0     -0.00450654
"Line.LN5958706-1"            0.00027,      0.0     -0.00370532
"Line.LN5623399-1"            0.00025,      0.0     -0.00875644
"Line.LN5623396-1"            0.02189,     0.03     0.000367604
"Line.LN5532734-1"            0.01044,     0.02     -0.00366134
"Line.LN5651961-1"            0.00023,      0.0     -0.0105833
"Line.LN6137015-1"            0.02151,     0.02     0.00572587
"Line.LN6019478-1"            0.00049,      0.0     -0.0127347
"Line.LN6376200-2"            0.01069,     0.02     -0.00701261
"Line.LN5926294-1"            0.00026,      0.0     -0.00872951
"Line.LN6108130-5"            0.00036,      0.0     -0.00852698
"Line.LN6077782-1"            0.80347,     0.11     0.246209
"Line.LN6286966-2"            0.00005,      0.0     -0.0053589
"Line.LN8979346-3"            0.00026,      0.0     -0.039372
"Line.LN5562947-1"            0.01778,     0.02     0.00279606
"Line.LN81048107-2"           0.00706,     0.01     -0.0349984
"Line.LN5655838-1"            0.05578,     0.02     -0.0227875
"Line.LN6017297-1"            0.00476,     0.01     -0.00218467
"Line.LN5956456-1"            0.08798,     0.09     0.0179826
"Line.LN6108148-1"            0.00003,      0.0     -0.009349
"Line.LN81048100-7"           0.00473,     0.00     -0.000488219
"Line.LN5928545-1"            0.00002,      0.0     -0.000346769
"Line.LN5624291-1"            0.09598,     0.04     0.0641472
"Line.LN6134417-2"            0.00004,      0.0     -0.00115941
"Line.LN5504713-3"            0.00166,     0.00     -0.00500255
"Line.LN5895784-1"            0.00263,     0.01     -0.00526646
"Line.LN5683858-2"            0.00143,     0.00     -0.0156995
"Line.LN5986937-1"            0.00091,     0.00     -0.00342846
"Line.LN6041764-1"            0.00001,      0.0     -0.00489646
"Line.LN6228396-1"            0.04933,     0.04     0.0155683
"Line.LN5896727-1"            0.00026,      0.0     -0.00431028
...
"Line.LN4625713_SW"           0.01007,     0.00     0.00999922
"Line.LN5502543-2"            0.48360,     0.04     0.407186
"Line.LN5683824-1"            0.06532,     0.04     0.0275946
"Line.LN6259999-2"            0.00024,      0.0     -0.00365948
"Line.LN6349052-1"            0.00123,     0.01     -0.0446556
"Line.LN5926295-1"            0.00729,     0.02     -0.0152499
"Line.LN6381766-1"            0.02228,     0.02     0.00786512
"Line.LN5561439-2"            0.00917,     0.00     0.0160064
"Line.LN5502527-1"            0.00010,      0.0     -0.0153107
"Line.LN6290217-1"            0.01661,     0.01     -0.0477726
"Line.LN5593246-1"            0.00723,     0.01     -0.00207131
"Line.LN5956465-1"            0.00495,     0.02     -0.0317922
"Line.LN5835134-1"            0.00018,      0.0     -0.0277791
"Line.LN5679695-1"            2.26907,     0.04     5.38718
"Line.LN6341781-2"            0.00002,      0.0     -0.00143408
"Line.LN6018336-1"            4.80101,     0.04     11.3443
"Line.LN5532749-3"            0.00014,      0.0     -0.00622247
"Line.LN5686244-1"            0.00017,      0.0     -0.000358892
"Line.LN6879074-1"            0.00002,      0.0     -0.00329653
"Line.LN6106511-1"            3.90671,     0.18     1.22128
"Line.LN5679770-2"            0.00004,      0.0     -0.00470833
"Line.LN5993742-1"            0.00008,      0.0     -0.0114539
"Line.LN6259997-1"            0.00056,      0.0     -0.00695865
"Line.LN5682337-1"            0.00000,      0.0     -0.00106632
"Line.LN5653456-1"            0.00076,      0.0     -0.00161194
"Line.LN6196270-4"            0.00016,      0.0     -0.00402562
"Line.LN6290233-1"            0.03083,     0.01     -0.0151641
"Line.LN6991377-13"           0.02504,     0.02     0.0120907
"Line.LN6199556-1"            0.00017,      0.0     -0.011998
"Line.LN5744323-1"            0.00481,     0.01     -0.0053888
"Line.LN5745347-1"            0.33172,     0.01     0.743131
"Line.LN6047561-1"            3.53021,     0.30     1.2409
"Line.LN6411389-1"            0.00506,     0.00     0.00163684
"Line.LN5774453-1"            2.53400,     0.21     0.888792
"Line.LN5926303-1"            0.01172,     0.02     -0.00658755
"Line.LN5770318-1"            0.02832,     0.00     0.00896053
"Line.LN5958702-3"            0.00232,     0.01     -0.0100449
"Line.LN5804806-1"            0.01885,     0.02     0.00484037
"Line.LN5561521-1"            0.00599,     0.02     -0.0164438
"Line.LN6199521-1"            0.00009,      0.0     -0.00943107
"Line.LN6290240-2"            0.00000,      0.0     -0.0412078
"Line.LN81018877-1"           0.00016,      0.0     -0.0176748
"Line.LN5860423-1"            2.41970,     0.05     2.27489
"Line.LN7064338-3"            0.00024,      0.0     -0.00633616
"Line.LN6077801-1"            0.00780,     0.02     -0.0117391
"Line.LN5653489-1"            0.00056,      0.0     -0.0322848
"Line.LN6199515-1"            0.00082,      0.0     -0.00201871
"Line.LN6380819-1"            0.01002,     0.02     -0.00387256
"Line.LN4641075_SW"           0.16882,     0.00     0.168753
"Line.LN5860423-3"            0.70632,     0.01     0.660928
"Line.LN5622467-4"            0.06452,     0.02     -0.0403806
"Line.LN81043320-3"           0.03305,     0.03     -0.0766784
"Line.LN6290213-1"            0.00071,      0.0     -0.00741125
"Line.LN6140774-2"            0.00044,      0.0     -0.00805861
"Line.LN5500984-4"            0.00158,     0.00     0.000496338
"Line.LN6412366-1"            0.00048,      0.0     -0.00843443
"Line.LN6383058-1"            0.00002,      0.0     -0.000690246
"Line.LN5649361-2"            0.00012,      0.0     -0.0073266
"Line.LN5562930-1"            0.00009,      0.0     -0.0119827
"Line.LN5863825-1"            0.00043,      0.0     -0.0158502
"Line.LN6290212-1"            3.75967,     0.20     1.17144
"Line.LN5714046-1"            0.00028,      0.0     -0.0152793
"Line.LN5682448-2"            0.00001,      0.0     -0.0015712
"Line.LN6229832-2"            0.00006,      0.0     -0.00907664
"Line.LN5843536-1"            0.06984,     0.01     0.024873
"Line.LN5715018-1"            0.00013,      0.0     -0.0049982
"Line.L5491_48332_SW"         0.00003,      0.0     3.17986E-006
"Line.LN5655682-1"            0.00019,      0.0     -0.000476335
"Line.LN4625696_SW"           0.00446,     0.00     0.0043959
"Line.LN5926308-3"            0.23938,     0.03     0.0663726
"Line.LN6290206-1"            0.00017,      0.0     -0.00898528
"Line.LN5562929-1"            0.00016,      0.0     -0.00571515
"Line.LN5803293-2"            0.00297,     0.01     -0.00544307
"Line.LN5745355-1"            4.00984,     0.04     9.47467
"Line.LN6017285-1"            0.00182,     0.01     -0.0240693
"Line.LN6201698-2"            0.00001,      0.0     -0.000606501
"Line.LN5501003-1"            0.00036,      0.0     -0.00888261
"Line.LN5924720-1"            0.00002,      0.0     -0.00388178
"Line.LN6255845-1"            0.00047,      0.0     -0.000690618
"Line.LN5956501-1"            0.00013,      0.0     -0.00728924
"Line.LN6077772-1"            0.00246,     0.01     -0.00764999
"Line.LN6225673-1"            0.00009,      0.0     -0.00121787
"Line.LN5561432-1"            0.02005,     0.02     0.00473751
"Line.LN4586093_SW"           0.02504,     0.00     0.024974
"Line.LN6138608-3"            3.30433,     0.18     1.03039
"Line.LN6138618-1"            0.00040,      0.0     -0.0144534
"Line.LN5562921-1"            0.13444,     0.07     0.0617967
"Line.LN5895807-1"            0.00003,      0.0     -0.0154128
"Line.LN5502540-1"            0.09470,     0.04     0.0462665
"Line.LN6411375-1"            0.00020,      0.0     -0.00700106
"Line.LN6047573-2"            0.06294,     0.05     0.0221147
"Line.LN5741249-1"            0.00060,      0.0     -0.000158107
"Line.LN5698090-3"            0.00002,      0.0     -0.000487013
"Line.LN5989332-1"            0.00195,     0.01     -0.00589417
"Line.LN5927423-1"            0.01810,     0.02     -0.0732655
"Line.LN5895803-1"            0.00314,     0.01     -0.0100134
"Line.LN6260001-1"            0.00005,      0.0     -0.0158419
"Line.LN6229791-1"            0.00074,      0.0     -0.00606789
"Line.LN6409775-2"            0.00533,     0.01     -0.00359353
"Line.LN5714042-1"            0.00018,      0.0     -0.00961047
"Line.LN6411005-1"            0.12663,     0.03     0.0306982
"Line.LN5532788-2"            0.00001,      0.0     -0.00143058
"Line.LN5744325-1"            0.00021,      0.0     -0.00789815
"Line.LN6320332-1"            0.23926,     0.14     0.103764
"Line.LN6991378-5"            0.00030,      0.0     -0.00934834
"Line.LN5863704-3"            0.91017,     0.03     0.854671
"Line.LN6318745-3"            0.01700,     0.01     0.00646608
"Line.LN6413700-1"            3.84887,     0.05     9.18279
"Line.LN6409778-1"            0.10225,     0.04     -0.0467867
"Line.LN6381854-1"            0.00126,     0.01     -0.0149728
"Line.LN6138608-2"            0.17763,     0.01     0.0553935
"Line.LN5744370-2"            0.00011,      0.0     -0.00583113
"Line.LN6290240-3"            0.00000,      0.0     -0.0263751
"Line.LN8979358-1"            0.00254,     0.01     -0.0292299
"Line.LN5927383-1"            0.00135,     0.00     -0.0484513
"Line.L5659_48332_SW"         0.00086,      0.0     0.000837176
"Line.LN6231996-1"            0.03550,     0.02     0.0167171
"Line.LN5533797-1"            0.00031,      0.0     -0.0491471
"Line.LN6047582-1"            0.00012,      0.0     -0.0126467
"Line.LN6409775-4"            0.00817,     0.01     -0.00381677
"Line.LN5926290-1"            0.00095,     0.01     -0.0229954
"Line.LN6381820-1"            7.43414,     0.10     17.7171
"Line.LN6103662-1"            0.00331,     0.01     -0.0089361
"Line.LN6262430-1"            0.00005,      0.0     -0.000629156
"Line.LN5742813-1"            0.00046,      0.0     -0.00740901
"Line.LN6199527-1"            0.62158,     0.07     0.177201
"Line.LN5986925-2"            0.00053,      0.0     -0.00676664
"Line.LN5742811-1"            0.29095,     0.02     0.250743
"Line.LN5926284-3"            0.00348,     0.01     -0.00373986
"Line.LN6413954-1"            3.74553,     0.05     8.89908
"Line.LN6411366-1"            0.03281,     0.05     -0.017888
"Line.LN6412354-1"            1.08557,     0.01     2.56509
"Line.LN5895789-2"            0.51714,     0.08     0.153839
"Line.LN6383060-2"            0.01659,     0.01     0.00808833
"Line.LN6259984-1"            3.79678,     0.06     9.01355
"Line.LN5591814-1"            0.34815,     0.09     0.18238
"Line.LN5502531-1"            1.50148,     0.08     0.467781
"Line.LN5863746-1"            0.00000,      0.0     -0.00108847
"Line.LN5956499-3"            0.13724,     0.02     0.111061
"Line.LN5769126-1"            1.79069,     0.03     4.25612
"Line.LN3693186_SW"           0.38634,     0.01     0.386276
"Line.LN5861005-2"            0.38166,     0.01     0.906801
"Line.LN5714043-1"            0.00015,      0.0     -0.00180281
"Line.LN5835138-1"            0.00010,      0.0     -0.0108128
"Line.LN6411383-1"            0.88939,     0.06     0.810035
"Line.LN81048100-2"           0.04850,     0.03     -0.0189438
"Line.LN6019479-1"            0.00402,     0.00     0.00128855
"Line.LN5714044-1"            0.00001,      0.0     -0.00207384
"Line.LN6260000-1"            0.08587,     0.04     0.041187
"Line.LN5985347-1"            0.00302,     0.01     -0.0103624
"Line.LN6348967-1"            0.00000,      0.0     -0.00347682
"Line.LN5833611-1"            0.00544,     0.02     -0.0170485
"Line.LN5593251-1"            0.29570,     0.03     0.24801
"Line.LN5837358-1"            0.00030,      0.0     -0.000416878
"Line.LN5894218-1"            0.00711,     0.02     -0.0142531
"Line.LN6195132-1"            0.00038,      0.0     -0.00103236
"Line.LN6229829-2"            0.05567,     0.01     0.047755
"Line.LN6380825-1"            0.02157,     0.02     0.00184482
"Line.LN5624375-1"            0.00014,      0.0     -0.0155264
"Line.LN5533710-1"            0.00005,      0.0     -0.00275653
"Line.LN6196270-2"            0.00030,      0.0     -0.0204609
"Line.LN5653464-1"            0.00007,      0.0     -0.00214993
"Line.LN5986919-1"            0.00348,     0.01     -0.00534398
"Line.LN5807086-1"            0.00003,      0.0     -0.00813178
"Line.LN5805676-2"            0.00001,      0.0     -0.000758766
"Line.LN6108170-1"            0.00821,     0.00     0.00378149
"Line.LN6292466-1"            0.00002,      0.0     -0.00117145
"Line.LN5472394-1"            0.00042,      0.0     -0.000169973
"Line.LN6017328-1"            0.00387,     0.01     -0.0148262
"Line.LN5957493-1"            0.74303,     0.03     1.66374
"Line.LN5623403-1"            4.05662,     0.19     1.27112
"Line.LN6320333-1"            0.09314,     0.05     0.0436735
"Line.LN5865241-1"            0.07215,     0.03     0.0346018
"Line.LN6259998-3"            0.00005,      0.0     -0.00203045
"Line.LN6046058-1"            0.00109,     0.00     -0.00688765
"Line.LN6229788-1"            0.00002,      0.0     -0.000434506
"Line.LN6896673-7"            0.00003,      0.0     -0.00340746
"Line.LN6169257-1"            1.43162,     0.09     1.30411
"Line.LN5682375-1"            0.00530,     0.01     -0.00514066
"Line.LN6106584-1"            0.00201,     0.01     -0.0085301
"Line.LN5472403-3"            0.06858,     0.03     -0.0277221
"Line.LN6137009-2"            0.77332,     0.01     1.841
"Line.LN5502536-2"            0.00024,      0.0     -0.00113546
"Line.LN5926304-1"            0.01476,     0.02     -0.00589025
"Line.LN5806921-1"            0.00009,      0.0     -0.000930734
"Line.LN6108146-1"            0.00037,      0.0     -0.00462906
"Line.LN5803267-1"            0.00115,     0.01     -0.0181296
"Line.LN5486729-1"            0.00000,      0.0     -0.00036337
"Line.LN5835142-1"            0.01041,     0.01     -0.000382593
"Line.LN5683842-1"            0.00006,      0.0     -0.000324645
"Line.LN6047598-1"            0.00004,      0.0     -0.00849886
"Line.V7313_48332_SW"         0.00003,      0.0     3.40195E-006
"Line.LN5806920-1"            0.00013,      0.0     -0.000493298
"Line.LN5987955-2"            0.00087,      0.0     -0.00684612
"Line.LN5744371-1"            0.00032,      0.0     -0.00639444
"Line.LN6352702-1"            0.00061,      0.0     -0.000825007
"Line.LN5835151-1"            0.00147,     0.01     -0.0135738
"Line.LN5894212-2"            0.00087,      0.0     -0.0642172
"Line.LN5774458-1"            0.19290,     0.03     0.0345028
"Line.LN5895771-2"            0.00002,      0.0     -0.00338526
"Line.LN5837355-1"            0.06503,     0.03     0.0310518
"Line.LN6015811-1"            0.00039,      0.0     -0.0110994
"Line.LN81048106-1"           0.01021,     0.01     -0.0136585
"Line.LN5804835-1"            0.00126,     0.00     -0.00934269
"Line.LN5805676-3"            0.00011,      0.0     -0.00584734
"Line.LN6043468-3"            0.00035,      0.0     -0.00328183
"Line.LN6047566-1"            0.09468,     0.02     0.00114207
"Line.LN6381855-1"            0.00009,      0.0     -0.0101093
"Line.LN5943422-3"            0.00204,     0.00     -0.0018108
"Line.LN81048088-1"           0.00234,     0.00     -0.0019153
"Line.LN5683827-2"            0.00002,      0.0     -0.00112603
"Line.LN5532782-1"            0.02547,     0.02     0.0109233
"Line.LN6106580-1"            0.00547,     0.01     -0.00844302
"Line.LN5562946-1"            0.00035,      0.0     -0.00470928
"Line.LN5920279-2"            0.60636,     0.01     1.44185
"Line.LN5621886-1"            0.14231,     0.09     -0.0787346
"Line.LN6290209-1"            1.14978,     0.22     0.160632
"Line.LN5863714-2"            0.26940,     0.00     0.640517
"Line.LN6106583-4"            0.00068,      0.0     -0.000549231
"Line.LN6015794-1"            0.00016,      0.0     -0.00771182
"Line.LN81048103-2"           0.02736,     0.03     -0.0544566
"Line.LN6078689-1"            0.00023,      0.0     -0.00319756
"Line.LN5683805-1"            0.00038,      0.0     -0.0197725
"Line.LN6199558-1"            0.24128,     0.10     0.117927
"Line.LN6286109-1"            0.76090,     0.01     1.81189
"Line.LN6350556-3"            3.61602,     0.07     3.43074
"Line.LN5625548-1"            0.00016,      0.0     -0.00102274
"Line.LN6199546-1"            0.00025,      0.0     -0.00327236
...